6DN5
                    3D
 Schrodinger Suite 2025-2.
 59 61  0  0  1  0            999 V2000
    5.0640   95.3500  146.6170 N   0  3  0  0  0  0
    3.6590   95.4140  146.1880 C   0  0  2  0  0  0
    3.4380   96.1140  144.8430 C   0  0  0  0  0  0
    2.3680   96.7000  144.6280 O   0  0  0  0  0  0
    2.7570   96.0300  147.2650 C   0  0  0  0  0  0
    3.1560   97.4090  147.6820 C   0  0  0  0  0  0
    2.6880   98.5950  147.1860 C   0  0  0  0  0  0
    4.0940   97.7410  148.7100 C   0  0  0  0  0  0
    3.2690   99.6450  147.8540 N   0  0  0  0  0  0
    4.1640   99.1490  148.7720 C   0  0  0  0  0  0
    4.9040   96.9760  149.5750 C   0  0  0  0  0  0
    5.0010   99.8140  149.6740 C   0  0  0  0  0  0
    5.7130   97.6350  150.4890 C   0  0  0  0  0  0
    5.7630   99.0350  150.5270 C   0  0  0  0  0  0
    4.4060   95.9930  143.9070 N   0  0  0  0  0  0
    4.2650   96.5820  142.5900 C   0  0  2  0  0  0
    3.2190   95.7850  141.7370 C   0  0  0  0  0  0
    2.6310   94.7930  142.2010 O   0  0  0  0  0  0
    5.6570   96.7930  141.9110 C   0  0  0  0  0  0
    6.3210   95.6310  141.1600 C   0  0  0  0  0  0
    5.8880   94.4740  141.3350 O   0  0  0  0  0  0
    7.2710   95.8870  140.4070 O   0  5  0  0  0  0
    2.9390   96.2670  140.5320 N   0  0  0  0  0  0
    1.9480   95.6560  139.6340 C   0  0  2  0  0  0
    2.1680   94.1000  139.4380 C   0  0  0  0  0  0
    1.1960   93.3570  139.2930 O   0  0  0  0  0  0
    1.9350   96.4630  138.2970 C   0  0  2  0  0  0
    0.7450   96.0790  137.4080 C   0  0  0  0  0  0
    3.2890   96.3670  137.5320 C   0  0  0  0  0  0
    0.4970   97.0100  136.2340 C   0  0  0  0  0  0
    3.4380   93.6270  139.4920 N   0  0  0  0  0  0
    3.8040   92.2230  139.2830 C   0  0  2  0  0  0
    4.1010   91.4550  140.5580 C   0  0  0  0  0  0
    4.7770   90.4110  140.5070 O   0  0  0  0  0  0
    4.9630   92.1210  138.2800 C   0  0  0  0  0  0
    4.4860   92.3430  136.8580 C   0  0  0  0  0  0
    3.4310   91.8280  136.4550 O   0  0  0  0  0  0
    5.2670   93.0700  136.0470 N   0  0  0  0  0  0
    3.5540   91.9370  141.7080 N   0  0  0  0  0  0
    3.7120   91.2830  143.0110 C   0  0  2  0  0  0
    5.2020   91.1700  143.4230 C   0  0  0  0  0  0
    5.6620   90.1290  143.9090 O   0  0  0  0  0  0
    3.0010   89.9290  143.0030 C   0  0  0  0  0  0
    2.7890   89.3120  144.3590 C   0  0  0  0  0  0
    2.3310   89.9470  145.3140 O   0  0  0  0  0  0
    3.0720   88.0230  144.4560 N   0  0  0  0  0  0
    5.9550   92.2570  143.2090 N   0  0  0  0  0  0
    7.3750   92.2850  143.5480 C   0  0  2  0  0  0
    7.6470   93.5390  144.3500 C   0  0  0  0  0  0
    7.1120   94.5880  143.9850 O   0  0  0  0  0  0
    8.2150   92.3090  142.2740 C   0  0  0  0  0  0
    8.0750   91.0960  141.4070 C   0  0  0  0  0  0
    8.3170   89.9620  141.8410 O   0  0  0  0  0  0
    7.8370   91.3280  140.1240 N   0  0  0  0  0  0
    8.2620   93.6370  145.5770 N   0  0  0  0  0  0
    8.1830   94.7810  146.5480 C   0  0  0  0  0  0
    7.1510   94.5750  147.6560 C   0  0  0  0  0  0
    5.7670   94.2900  147.1200 C   0  0  0  0  0  0
    5.3070   93.1440  147.1210 O   0  0  0  0  0  0
  1 58  1  0  0  0
  1  2  1  0  0  0
  2  3  1  0  0  0
  2  5  1  0  0  0
  3  4  2  0  0  0
  3 15  1  0  0  0
  5  6  1  0  0  0
  6  7  2  0  0  0
  6  8  1  0  0  0
  7  9  1  0  0  0
  8 10  2  0  0  0
  8 11  1  0  0  0
  9 10  1  0  0  0
 10 12  1  0  0  0
 11 13  2  0  0  0
 12 14  2  0  0  0
 13 14  1  0  0  0
 15 16  1  0  0  0
 16 17  1  0  0  0
 16 19  1  0  0  0
 17 18  2  0  0  0
 17 23  1  0  0  0
 19 20  1  0  0  0
 20 21  2  0  0  0
 20 22  1  0  0  0
 23 24  1  0  0  0
 24 25  1  0  0  0
 24 27  1  0  0  0
 25 26  2  0  0  0
 25 31  1  0  0  0
 27 28  1  0  0  0
 27 29  1  0  0  0
 28 30  1  0  0  0
 31 32  1  0  0  0
 32 33  1  0  0  0
 32 35  1  0  0  0
 33 34  2  0  0  0
 33 39  1  0  0  0
 35 36  1  0  0  0
 36 37  2  0  0  0
 36 38  1  0  0  0
 39 40  1  0  0  0
 40 41  1  0  0  0
 40 43  1  0  0  0
 41 42  2  0  0  0
 41 47  1  0  0  0
 43 44  1  0  0  0
 44 45  2  0  0  0
 44 46  1  0  0  0
 47 48  1  0  0  0
 48 49  1  0  0  0
 48 51  1  0  0  0
 49 55  1  0  0  0
 49 50  2  0  0  0
 51 52  1  0  0  0
 52 53  2  0  0  0
 52 54  1  0  0  0
 55 56  1  0  0  0
 56 57  1  0  0  0
 57 58  1  0  0  0
 58 59  2  0  0  0
M  CHG  2   1   1  22  -1
M  END
> <i_m_Source_File_Index>
1

> <i_pdb_PDB_CRYST1_z>
4

> <r_pdb_PDB_CRYST1_a>
32.62

> <r_pdb_PDB_CRYST1_alpha>
90

> <r_pdb_PDB_CRYST1_b>
65.95

> <r_pdb_PDB_CRYST1_beta>
90

> <r_pdb_PDB_CRYST1_c>
110.02

> <r_pdb_PDB_CRYST1_gamma>
90

> <r_pdb_PDB_EXPDTA_TEMPERATURE>
100

> <r_pdb_PDB_R>
0.174

> <r_pdb_PDB_RESOLUTION>
2.4

> <r_pdb_PDB_Rfree>
0.246

> <s_m_Source_File>
6dn5.pdb

> <s_m_Source_Path>
/Users/johnfred

> <s_m_entry_id>
19

> <s_m_entry_name>
6dn5.1

> <s_pdb_PDB_CLASSIFICATION>
IMMUNE SYSTEM/INHIBITOR

> <s_pdb_PDB_CRYST1_Space_Group>
P 21 21 21

> <s_pdb_PDB_DEPOSITION_DATE>
06-JUN-18

> <s_pdb_PDB_EXPDTA>
X-RAY DIFFRACTION

> <s_pdb_PDB_ID>
6DN5

> <s_pdb_PDB_REMARK_350_Biomolecule_1_Transform_1_Chains>
A, B

> <s_pdb_PDB_REMARK_350_Biomolecule_1_Transform_1_Matrix_1>
1.000000 0.000000 0.000000   0.000000;0.000000 1.000000 0.000000   0.000000;0.000000 0.000000 1.000000   0.000000

> <s_pdb_PDB_TITLE>
SPRY DOMAIN-CONTAINING SOCS BOX PROTEIN 2 COMPLEXED WITH WDINNN(BAL) CYCLIC PEPTIDE INHIBITOR

> <s_pdb_PDB_format_version>
3.30

$$$$
