Structure73
                    3D
 Schrodinger Suite 2025-2.
 99107  0  0  1  0            999 V2000
   -2.5880    4.5440  -10.3790 N   0  0  0  0  0  0
   -2.9890    5.8500  -10.9000 C   0  0  2  0  0  0
   -2.5630    7.0260  -10.0380 C   0  0  0  0  0  0
   -2.7850    8.1970  -10.4010 O   0  0  0  0  0  0
   -4.5090    5.7420  -10.9600 C   0  0  0  0  0  0
   -4.9200    4.5760  -10.1590 C   0  0  0  0  0  0
   -3.7060    3.7740   -9.8050 C   0  0  0  0  0  0
   -1.9270    6.7560   -8.9050 N   0  0  0  0  0  0
   -1.4930    7.8300   -8.0080 C   0  0  2  0  0  0
   -0.0400    8.1690   -8.3050 C   0  0  0  0  0  0
    0.8650    7.3630   -8.0840 O   0  0  0  0  0  0
   -1.6920    7.4110   -6.5440 C   0  0  0  0  0  0
   -1.2390    8.4960   -5.5910 C   0  0  0  0  0  0
   -1.8650    9.7380   -5.5690 C   0  0  0  0  0  0
   -0.1740    8.2390   -4.7230 C   0  0  0  0  0  0
   -1.4340   10.7180   -4.6990 C   0  0  0  0  0  0
    0.2560    9.2380   -3.8610 C   0  0  0  0  0  0
   -0.3700   10.4730   -3.8550 C   0  0  0  0  0  0
    0.1990    9.3580   -8.8550 N   0  0  0  0  0  0
    1.5250    9.8980   -9.1360 C   0  0  2  0  0  0
    2.0510   10.6840   -7.9420 C   0  0  0  0  0  0
    1.2820   11.4530   -7.3810 O   0  0  0  0  0  0
    1.4770   10.8220  -10.3530 C   0  0  0  0  0  0
    0.8190   10.2870  -11.5930 C   0  0  0  0  0  0
    1.5700   10.7530  -12.8330 C   0  0  0  0  0  0
    1.9110   11.9570  -12.8900 O   0  0  0  0  0  0
    1.8110    9.8910  -13.7070 O   0  5  0  0  0  0
    3.3120   10.5270   -7.5640 N   0  0  0  0  0  0
    3.8240   11.2320   -6.4210 C   0  0  1  0  0  0
    3.6830   10.3220   -5.2740 C   0  0  0  0  0  0
    4.2470   10.7240   -3.9740 C   0  0  0  0  0  0
    3.7380   11.6530   -2.9900 C   0  0  0  0  0  0
    2.6340   12.5110   -2.9160 C   0  0  0  0  0  0
    4.6060   11.6070   -1.8860 C   0  0  0  0  0  0
    5.6130   10.7190   -2.1790 N   0  0  0  0  0  0
    5.4080   10.2330   -3.3840 C   0  0  0  0  0  0
    4.3980   12.3370   -0.6960 C   0  0  0  0  0  0
    3.2980   13.1760   -0.7150 C   0  0  0  0  0  0
    2.9080   14.0090    0.6990 Cl  0  0  0  0  0  0
    2.4180   13.2110   -1.7780 C   0  0  0  0  0  0
    5.3070   11.4360   -6.6190 C   0  0  0  0  0  0
    6.0410   10.4560   -6.6390 O   0  0  0  0  0  0
    5.6890   12.6930   -6.7750 N   0  0  0  0  0  0
    7.0860   13.0550   -6.9480 C   0  0  2  0  0  0
    7.6870   12.1880   -8.0560 C   0  0  0  0  0  0
    7.1680   12.1590   -9.1780 O   0  0  0  0  0  0
    7.7520   12.9620   -5.5780 C   0  0  0  0  0  0
    7.1330   13.8320   -4.4780 C   0  0  0  0  0  0
    7.8500   13.6450   -3.1530 C   0  0  0  0  0  0
    7.1490   15.3040   -4.9240 C   0  0  0  0  0  0
    8.7430   11.4600   -7.7390 N   0  0  0  0  0  0
    9.4530   10.6360   -8.7110 C   0  0  2  0  0  0
    8.8370    9.2930   -9.0130 C   0  0  0  0  0  0
    9.4620    8.5140   -9.7380 O   0  0  0  0  0  0
   10.8700   10.3240   -8.1740 C   0  0  0  0  0  0
   11.7530   11.5160   -8.4660 C   0  0  0  0  0  0
   11.2020   12.6180   -8.3070 O   0  0  0  0  0  0
   12.9260   11.3140   -8.8400 O   0  5  0  0  0  0
    7.6640    9.0110   -8.4640 N   0  0  0  0  0  0
    7.1490    7.6680   -8.4880 C   0  0  2  0  0  0
    5.7140    7.5580   -8.9470 C   0  0  0  0  0  0
    4.9960    8.5520   -8.9820 O   0  0  0  0  0  0
    7.2750    7.0470   -7.0730 C   0  0  0  0  0  0
    8.6940    7.0420   -6.5870 C   0  0  0  0  0  0
    9.6510    6.1410   -6.9640 C   0  0  0  0  0  0
    9.2970    7.9620   -5.6790 C   0  0  0  0  0  0
   10.8330    6.4590   -6.3170 N   0  0  0  0  0  0
   10.6420    7.5590   -5.5260 C   0  0  0  0  0  0
    8.8440    9.0850   -4.9620 C   0  0  0  0  0  0
   11.5650    8.2120   -4.7040 C   0  0  0  0  0  0
    9.7750    9.7280   -4.1420 C   0  0  0  0  0  0
   11.1000    9.3000   -4.0200 C   0  0  0  0  0  0
    5.3300    6.3160   -9.2710 N   0  0  0  0  0  0
    3.9490    6.0760   -9.6650 C   0  0  2  0  0  0
    3.4460    4.8680   -8.8830 C   0  0  0  0  0  0
    4.1700    3.8670   -8.8260 O   0  0  0  0  0  0
    3.7540    5.7580  -11.1530 C   0  0  0  0  0  0
    4.3940    6.7930  -12.0520 C   0  0  0  0  0  0
    4.4280    6.3830  -13.5040 C   0  0  0  0  0  0
    4.4590    5.1500  -13.7450 O   0  0  0  0  0  0
    4.4340    7.2270  -14.4060 O   0  5  0  0  0  0
    2.2780    5.0530   -8.3160 N   0  0  0  0  0  0
    1.6170    4.0320   -7.5090 C   0  0  2  0  0  0
    0.2780    3.7170   -8.1480 C   0  0  0  0  0  0
   -0.7360    4.2460   -7.7090 O   0  0  0  0  0  0
    1.4490    4.5190   -6.0760 C   0  0  0  0  0  0
    2.7650    4.9200   -5.4410 C   0  0  0  0  0  0
    3.6190    3.9200   -4.9670 C   0  0  0  0  0  0
    3.1890    6.2170   -5.3380 C   0  0  0  0  0  0
    4.8230    4.2820   -4.4030 C   0  0  0  0  0  0
    4.3790    6.5680   -4.7380 C   0  0  0  0  0  0
    5.2330    5.5800   -4.2690 C   0  0  0  0  0  0
    0.2810    2.9200   -9.2060 N   0  0  0  0  0  0
   -0.9510    2.8040  -10.0130 C   0  0  2  0  0  0
   -0.6720    1.9010  -11.1310 C   0  0  0  0  0  0
    0.7140    1.3170  -10.8870 C   0  0  0  0  0  0
    1.3600    2.1580   -9.8110 C   0  0  0  0  0  0
   -1.3200    4.2000  -10.5180 C   0  0  0  0  0  0
   -0.4740    4.9590  -11.0170 O   0  0  0  0  0  0
  1 98  1  0  0  0
  1  2  1  0  0  0
  1  7  1  0  0  0
  2  3  1  0  0  0
  2  5  1  0  0  0
  3  4  2  0  0  0
  3  8  1  0  0  0
  5  6  1  0  0  0
  6  7  1  0  0  0
  8  9  1  0  0  0
  9 10  1  0  0  0
  9 12  1  0  0  0
 10 11  2  0  0  0
 10 19  1  0  0  0
 12 13  1  0  0  0
 13 14  2  0  0  0
 13 15  1  0  0  0
 14 16  1  0  0  0
 15 17  2  0  0  0
 16 18  2  0  0  0
 17 18  1  0  0  0
 19 20  1  0  0  0
 20 21  1  0  0  0
 20 23  1  0  0  0
 21 28  1  0  0  0
 21 22  2  0  0  0
 23 24  1  0  0  0
 24 25  1  0  0  0
 25 26  2  0  0  0
 25 27  1  0  0  0
 28 29  1  0  0  0
 29 30  1  0  0  0
 29 41  1  0  0  0
 30 31  1  0  0  0
 31 32  1  0  0  0
 31 36  2  0  0  0
 32 33  2  0  0  0
 32 34  1  0  0  0
 33 40  1  0  0  0
 34 35  1  0  0  0
 34 37  2  0  0  0
 35 36  1  0  0  0
 37 38  1  0  0  0
 38 39  1  0  0  0
 38 40  2  0  0  0
 41 42  2  0  0  0
 41 43  1  0  0  0
 43 44  1  0  0  0
 44 45  1  0  0  0
 44 47  1  0  0  0
 45 46  2  0  0  0
 45 51  1  0  0  0
 47 48  1  0  0  0
 48 49  1  0  0  0
 48 50  1  0  0  0
 51 52  1  0  0  0
 52 53  1  0  0  0
 52 55  1  0  0  0
 53 54  2  0  0  0
 53 59  1  0  0  0
 55 56  1  0  0  0
 56 57  2  0  0  0
 56 58  1  0  0  0
 59 60  1  0  0  0
 60 61  1  0  0  0
 60 63  1  0  0  0
 61 62  2  0  0  0
 61 73  1  0  0  0
 63 64  1  0  0  0
 64 65  2  0  0  0
 64 66  1  0  0  0
 65 67  1  0  0  0
 66 68  2  0  0  0
 66 69  1  0  0  0
 67 68  1  0  0  0
 68 70  1  0  0  0
 69 71  2  0  0  0
 70 72  2  0  0  0
 71 72  1  0  0  0
 73 74  1  0  0  0
 74 75  1  0  0  0
 74 77  1  0  0  0
 75 76  2  0  0  0
 75 82  1  0  0  0
 77 78  1  0  0  0
 78 79  1  0  0  0
 79 80  2  0  0  0
 79 81  1  0  0  0
 82 83  1  0  0  0
 83 84  1  0  0  0
 83 86  1  0  0  0
 84 93  1  0  0  0
 84 85  2  0  0  0
 86 87  1  0  0  0
 87 88  2  0  0  0
 87 89  1  0  0  0
 88 90  1  0  0  0
 89 91  2  0  0  0
 90 92  2  0  0  0
 91 92  1  0  0  0
 93 94  1  0  0  0
 93 97  1  0  0  0
 94 95  1  0  0  0
 94 98  1  0  0  0
 95 96  1  0  0  0
 96 97  1  0  0  0
 98 99  2  0  0  0
M  CHG  3  27  -1  58  -1  81  -1
M  END
> <i_m_Source_File_Index>
1

> <i_m_stars>
0

> <i_pdb_PDB_CRYST1_z>
8

> <r_pdb_PDB_CRYST1_a>
45.18

> <r_pdb_PDB_CRYST1_alpha>
90

> <r_pdb_PDB_CRYST1_b>
77.749

> <r_pdb_PDB_CRYST1_beta>
90

> <r_pdb_PDB_CRYST1_c>
61.257

> <r_pdb_PDB_CRYST1_gamma>
90

> <r_pdb_PDB_EXPDTA_PH>
5.5

> <r_pdb_PDB_EXPDTA_TEMPERATURE>
100

> <r_pdb_PDB_R>
0.149

> <r_pdb_PDB_RESOLUTION>
1.4

> <r_pdb_PDB_Rfree>
0.234

> <s_m_Source_File>
2axi.pdb

> <s_m_Source_Path>
/Users/johnfred

> <s_m_entry_id>
73

> <s_m_entry_name>
Structure73

> <s_pdb_PDB_CLASSIFICATION>
LIGASE/LIGASE INHIBITOR

> <s_pdb_PDB_CRYST1_Space_Group>
C 2 2 21

> <s_pdb_PDB_DEPOSITION_DATE>
05-SEP-05

> <s_pdb_PDB_EXPDTA>
X-RAY DIFFRACTION

> <s_pdb_PDB_ID>
2AXI

> <s_pdb_PDB_REMARK_350_Biomolecule_1_Transform_1_Chains>
A, B

> <s_pdb_PDB_REMARK_350_Biomolecule_1_Transform_1_Matrix_1>
1.000000 0.000000 0.000000   0.000000;0.000000 1.000000 0.000000   0.000000;0.000000 0.000000 1.000000   0.000000

> <s_pdb_PDB_REMARK_350_Biomolecule_2_Transform_1_Chains>
A, B

> <s_pdb_PDB_REMARK_350_Biomolecule_2_Transform_1_Matrix_1>
1.000000 0.000000 0.000000   0.000000;0.000000 1.000000 0.000000   0.000000;0.000000 0.000000 1.000000   0.000000

> <s_pdb_PDB_REMARK_350_Biomolecule_2_Transform_1_Matrix_2>
-1.000000 0.000000 0.000000   45.180000;0.000000 1.000000 0.000000   0.000000;0.000000 0.000000 -1.000000   30.628500

> <s_pdb_PDB_REMARK_350_Biomolecule_3_Transform_1_Chains>
A, B

> <s_pdb_PDB_REMARK_350_Biomolecule_3_Transform_1_Matrix_1>
1.000000 0.000000 0.000000   0.000000;0.000000 1.000000 0.000000   0.000000;0.000000 0.000000 1.000000   0.000000

> <s_pdb_PDB_REMARK_350_Biomolecule_3_Transform_1_Matrix_2>
1.000000 0.000000 0.000000   0.000000;0.000000 -1.000000 0.000000   0.000000;0.000000 0.000000 -1.000000   0.000000

> <s_pdb_PDB_REMARK_350_Biomolecule_4_Transform_1_Chains>
A

> <s_pdb_PDB_REMARK_350_Biomolecule_4_Transform_1_Matrix_1>
1.000000 0.000000 0.000000   0.000000;0.000000 1.000000 0.000000   0.000000;0.000000 0.000000 1.000000   0.000000

> <s_pdb_PDB_REMARK_350_Biomolecule_4_Transform_1_Matrix_2>
-1.000000 0.000000 0.000000   45.180000;0.000000 1.000000 0.000000   0.000000;0.000000 0.000000 -1.000000   30.628500

> <s_pdb_PDB_REMARK_350_Biomolecule_4_Transform_2_Chains>
B

> <s_pdb_PDB_REMARK_350_Biomolecule_4_Transform_2_Matrix_3>
-1.000000 0.000000 0.000000   45.180000;0.000000 -1.000000 0.000000   0.000000;0.000000 0.000000 1.000000   30.628500

> <s_pdb_PDB_REMARK_350_Biomolecule_4_Transform_2_Matrix_4>
1.000000 0.000000 0.000000   0.000000;0.000000 -1.000000 0.000000   0.000000;0.000000 0.000000 -1.000000   0.000000

> <s_pdb_PDB_REMARK_350_Biomolecule_5_Transform_1_Chains>
A, B

> <s_pdb_PDB_REMARK_350_Biomolecule_5_Transform_1_Matrix_1>
1.000000 0.000000 0.000000   0.000000;0.000000 1.000000 0.000000   0.000000;0.000000 0.000000 1.000000   0.000000

> <s_pdb_PDB_REMARK_350_Biomolecule_5_Transform_1_Matrix_2>
-1.000000 0.000000 0.000000   0.000000;0.000000 1.000000 0.000000   0.000000;0.000000 0.000000 -1.000000   -30.628500

> <s_pdb_PDB_TITLE>
HDM2 IN COMPLEX WITH A BETA-HAIRPIN

> <s_pdb_PDB_format_version>
3.30

$$$$
