9bt3_ligand
                    3D
 Schrodinger Suite 2023-1.
245252  0  0  1  0            999 V2000
    2.5589  -25.1951  -36.9718 C   0  0  0  0  0  0
    2.8794  -25.6277  -35.8649 O   0  0  0  0  0  0
    1.4884  -25.9179  -37.7861 C   0  0  0  0  0  0
    3.0869  -24.0833  -37.5091 N   0  0  0  0  0  0
    3.9885  -23.1735  -36.8001 C   0  0  2  0  0  0
    3.9888  -21.7848  -37.4528 C   0  0  0  0  0  0
    3.6230  -21.6449  -38.6206 O   0  0  0  0  0  0
    5.4143  -23.7706  -36.6779 C   0  0  0  0  0  0
    6.1767  -24.0519  -37.9649 C   0  0  0  0  0  0
    6.7741  -23.0018  -38.6945 C   0  0  0  0  0  0
    6.3407  -25.3818  -38.4054 C   0  0  0  0  0  0
    7.5268  -23.2775  -39.8504 C   0  0  0  0  0  0
    7.1018  -25.6582  -39.5573 C   0  0  0  0  0  0
    7.6920  -24.6065  -40.2835 C   0  0  0  0  0  0
    8.4265  -24.8782  -41.4004 O   0  0  0  0  0  0
    4.4635  -20.7962  -36.6812 N   0  0  0  0  0  0
    4.7256  -19.4353  -37.1332 C   0  0  2  0  0  0
    6.0294  -18.9708  -36.4751 C   0  0  0  0  0  0
    6.0744  -18.7948  -35.2596 O   0  0  0  0  0  0
    3.5035  -18.5333  -36.8299 C   0  0  0  0  0  0
    3.6966  -17.0150  -37.0643 C   0  0  0  0  0  0
    4.1343  -16.6752  -38.5053 C   0  0  0  0  0  0
    2.4209  -16.2520  -36.6763 C   0  0  0  0  0  0
    7.0696  -18.8048  -37.2992 N   0  0  0  0  0  0
    8.4113  -18.4029  -36.8864 C   0  0  2  0  0  0
    8.6359  -16.9030  -37.1064 C   0  0  0  0  0  0
    7.8929  -16.2769  -37.8609 O   0  0  0  0  0  0
    9.4291  -19.2469  -37.6757 C   0  0  0  0  0  0
    9.4616  -20.7230  -37.3796 C   0  0  0  0  0  0
    8.8507  -21.3497  -36.3451 C   0  0  0  0  0  0
   10.2178  -21.7625  -38.0727 C   0  0  0  0  0  0
    9.1732  -22.6882  -36.3507 N   0  0  0  0  0  0
   10.0073  -23.0054  -37.3997 C   0  0  0  0  0  0
   11.0809  -21.7796  -39.1924 C   0  0  0  0  0  0
   10.6025  -24.2039  -37.8280 C   0  0  0  0  0  0
   11.6850  -22.9747  -39.6327 C   0  0  0  0  0  0
   11.4423  -24.1862  -38.9564 C   0  0  0  0  0  0
    9.6592  -16.3620  -36.4254 N   0  0  0  0  0  0
   10.0288  -14.9463  -36.4656 C   0  0  2  0  0  0
   11.4616  -14.6900  -35.9173 C   0  0  0  0  0  0
   11.7910  -13.5451  -35.6016 O   0  0  0  0  0  0
    8.9543  -14.0538  -35.7565 C   0  0  2  0  0  0
    9.1951  -12.6745  -35.9581 O   0  0  0  0  0  0
    8.8429  -14.2794  -34.2369 C   0  0  0  0  0  0
   12.3100  -15.7369  -35.8226 N   0  0  0  0  0  0
   13.7089  -15.6291  -35.3794 C   0  0  2  0  0  0
   14.5630  -14.7722  -36.3263 C   0  0  0  0  0  0
   15.2074  -13.8336  -35.8626 O   0  0  0  0  0  0
   14.3437  -17.0217  -35.1535 C   0  0  0  0  0  0
   15.8325  -16.9690  -34.8327 C   0  0  0  0  0  0
   16.2519  -16.5234  -33.5652 C   0  0  0  0  0  0
   16.7976  -17.2538  -35.8227 C   0  0  0  0  0  0
   17.6171  -16.3143  -33.2977 C   0  0  0  0  0  0
   18.1651  -17.0396  -35.5598 C   0  0  0  0  0  0
   18.5744  -16.5516  -34.3021 C   0  0  0  0  0  0
   19.8927  -16.2995  -34.0587 O   0  0  0  0  0  0
   14.5251  -15.1112  -37.6234 N   0  0  0  0  0  0
   15.1790  -14.3616  -38.6856 C   0  0  2  0  0  0
   14.1452  -14.1078  -39.7870 C   0  0  0  0  0  0
   13.6006  -13.0079  -39.8372 O   0  0  0  0  0  0
   16.4784  -15.0666  -39.1369 C   0  0  0  0  0  0
   17.2152  -14.3571  -40.2592 C   0  0  0  0  0  0
   17.5661  -12.9986  -40.1119 C   0  0  0  0  0  0
   17.5398  -15.0377  -41.4518 C   0  0  0  0  0  0
   18.2147  -12.3169  -41.1560 C   0  0  0  0  0  0
   18.1926  -14.3545  -42.4968 C   0  0  0  0  0  0
   18.5219  -12.9911  -42.3512 C   0  0  0  0  0  0
   19.1438  -12.3149  -43.3577 O   0  0  0  0  0  0
   13.8379  -15.1199  -40.6102 N   0  0  0  0  0  0
   12.7199  -15.0612  -41.5524 C   0  0  2  0  0  0
   11.3955  -15.3522  -40.8313 C   0  0  0  0  0  0
   11.3540  -16.2268  -39.9620 O   0  0  0  0  0  0
   12.9426  -16.0690  -42.6943 C   0  0  0  0  0  0
   14.2029  -15.7665  -43.5310 C   0  0  0  0  0  0
   14.3915  -16.7009  -44.7338 C   0  0  0  0  0  0
   14.1501  -17.9203  -44.5873 O   0  0  0  0  0  0
   14.8111  -16.1804  -45.7898 O   0  5  0  0  0  0
   10.3312  -14.6412  -41.2416 N   0  0  0  0  0  0
    8.9588  -14.9447  -40.8421 C   0  0  2  0  0  0
    8.4407  -16.0606  -41.7579 C   0  0  0  0  0  0
    8.0219  -15.7809  -42.8792 O   0  0  0  0  0  0
    8.1000  -13.6559  -40.8509 C   0  0  0  0  0  0
    6.6631  -13.7965  -40.2752 C   0  0  0  0  0  0
    6.1522  -12.4503  -39.7189 C   0  0  0  0  0  0
    5.6526  -14.4028  -41.2758 C   0  0  0  0  0  0
    8.5315  -17.3096  -41.2801 N   0  0  0  0  0  0
    8.0915  -18.4891  -42.0212 C   0  0  2  0  0  0
    6.8223  -19.0148  -41.3432 C   0  0  0  0  0  0
    6.8426  -19.3093  -40.1480 O   0  0  0  0  0  0
    9.1654  -19.6168  -42.0481 C   0  0  2  0  0  0
   10.4633  -19.1225  -42.7294 C   0  0  0  0  0  0
    8.6704  -20.9074  -42.7482 C   0  0  0  0  0  0
   11.7026  -19.9647  -42.4085 C   0  0  0  0  0  0
    5.7522  -19.1238  -42.1396 N   0  0  0  0  0  0
    4.4545  -19.6222  -41.7130 C   0  0  2  0  0  0
    4.1520  -20.9484  -42.4230 C   0  0  0  0  0  0
    4.1979  -21.0008  -43.6527 O   0  0  0  0  0  0
    3.3884  -18.5390  -41.9971 C   0  0  0  0  0  0
    1.9493  -18.9621  -41.7581 C   0  0  0  0  0  0
    1.5744  -19.5606  -40.5365 C   0  0  0  0  0  0
    0.9621  -18.7162  -42.7351 C   0  0  0  0  0  0
    0.2675  -19.9798  -40.3456 C   0  0  0  0  0  0
   -0.3475  -19.1180  -42.5108 C   0  0  0  0  0  0
   -0.6896  -19.7596  -41.3278 C   0  0  0  0  0  0
    3.8107  -21.9712  -41.6254 N   0  0  0  0  0  0
    3.2923  -23.2513  -42.0914 C   0  0  2  0  0  0
    1.8618  -23.4043  -41.5370 C   0  0  0  0  0  0
    1.7194  -23.5479  -40.3210 O   0  0  0  0  0  0
    4.2144  -24.3861  -41.5903 C   0  0  0  0  0  0
    3.7407  -25.7830  -42.0437 C   0  0  0  0  0  0
    4.6900  -26.9176  -41.6442 C   0  0  0  0  0  0
    4.2008  -28.2824  -42.1558 C   0  0  0  0  0  0
    5.1180  -29.3715  -41.7759 N   0  3  0  0  0  0
    0.8348  -23.4092  -42.4208 N   0  0  0  0  0  0
   -0.5171  -23.8998  -42.0827 C   0  0  2  0  0  0
   -0.5061  -25.3446  -41.5475 C   0  0  0  0  0  0
    0.0465  -26.2299  -42.2024 O   0  0  0  0  0  0
   -1.2943  -23.7858  -43.4087 C   0  0  0  0  0  0
   -0.5483  -22.7326  -44.2083 C   0  0  0  0  0  0
    0.9009  -22.9741  -43.8155 C   0  0  0  0  0  0
   -1.0642  -25.5319  -40.3403 N   0  0  0  0  0  0
   -1.0580  -26.8021  -39.5910 C   0  0  2  0  0  0
   -2.1262  -27.8040  -40.1714 C   0  0  0  0  0  0
   -1.6623  -28.9083  -40.5393 O   0  0  0  0  0  0
   -1.2684  -26.5712  -38.0711 C   0  0  0  0  0  0
   -0.1669  -25.3220  -37.3290 S   0  0  0  0  0  0
   -3.3140  -27.4000  -40.1758 O   0  5  0  0  0  0
    1.5417  -26.9847  -37.5655 H   0  0  0  0  0  0
    1.6616  -25.8052  -38.8568 H   0  0  0  0  0  0
    2.7818  -23.7742  -38.4230 H   0  0  0  0  0  0
    3.5906  -23.0394  -35.7916 H   0  0  0  0  0  0
    5.3678  -24.6949  -36.1029 H   0  0  0  0  0  0
    6.0326  -23.1023  -36.0768 H   0  0  0  0  0  0
    6.6805  -21.9792  -38.3599 H   0  0  0  0  0  0
    5.8968  -26.1959  -37.8509 H   0  0  0  0  0  0
    7.9943  -22.4647  -40.3827 H   0  0  0  0  0  0
    7.2334  -26.6796  -39.8819 H   0  0  0  0  0  0
    8.8081  -24.0927  -41.7991 H   0  0  0  0  0  0
    4.7579  -21.0038  -35.7374 H   0  0  0  0  0  0
    4.8871  -19.4505  -38.2119 H   0  0  0  0  0  0
    3.2072  -18.6798  -35.7901 H   0  0  0  0  0  0
    2.6583  -18.8830  -37.4248 H   0  0  0  0  0  0
    4.4815  -16.6567  -36.3973 H   0  0  0  0  0  0
    3.4744  -15.9491  -38.9817 H   0  0  0  0  0  0
    5.1391  -16.2523  -38.5144 H   0  0  0  0  0  0
    4.1479  -17.5525  -39.1493 H   0  0  0  0  0  0
    2.4234  -15.2351  -37.0668 H   0  0  0  0  0  0
    1.5328  -16.7509  -37.0601 H   0  0  0  0  0  0
    2.3160  -16.1844  -35.5941 H   0  0  0  0  0  0
    6.9477  -18.9664  -38.2917 H   0  0  0  0  0  0
    8.5522  -18.5869  -35.8207 H   0  0  0  0  0  0
   10.4330  -18.8631  -37.4976 H   0  0  0  0  0  0
    9.2605  -19.1239  -38.7456 H   0  0  0  0  0  0
    8.2253  -20.8670  -35.6110 H   0  0  0  0  0  0
    8.8423  -23.3306  -35.6368 H   0  0  0  0  0  0
   11.2813  -20.8574  -39.7146 H   0  0  0  0  0  0
   10.4178  -25.1252  -37.2958 H   0  0  0  0  0  0
   12.3401  -22.9594  -40.4916 H   0  0  0  0  0  0
   11.9076  -25.0993  -39.2975 H   0  0  0  0  0  0
   10.2026  -16.9466  -35.8029 H   0  0  0  0  0  0
   10.0670  -14.6552  -37.5174 H   0  0  0  0  0  0
    7.9768  -14.2492  -36.1979 H   0  0  0  0  0  0
   10.0413  -12.4605  -35.5561 H   0  0  0  0  0  0
    8.0214  -13.6975  -33.8163 H   0  0  0  0  0  0
    8.6499  -15.3273  -34.0054 H   0  0  0  0  0  0
    9.7492  -13.9814  -33.7128 H   0  0  0  0  0  0
   11.9968  -16.6629  -36.0770 H   0  0  0  0  0  0
   13.7007  -15.1223  -34.4137 H   0  0  0  0  0  0
   14.2039  -17.6306  -36.0469 H   0  0  0  0  0  0
   13.8276  -17.5390  -34.3441 H   0  0  0  0  0  0
   15.5151  -16.3058  -32.8109 H   0  0  0  0  0  0
   16.4880  -17.5853  -36.8021 H   0  0  0  0  0  0
   17.9204  -15.9479  -32.3290 H   0  0  0  0  0  0
   18.8942  -17.2293  -36.3343 H   0  0  0  0  0  0
   20.0760  -16.0842  -33.1363 H   0  0  0  0  0  0
   13.9654  -15.8989  -37.9179 H   0  0  0  0  0  0
   15.4570  -13.3769  -38.3062 H   0  0  0  0  0  0
   16.2676  -16.0933  -39.4359 H   0  0  0  0  0  0
   17.1626  -15.1399  -38.2903 H   0  0  0  0  0  0
   17.3402  -12.4685  -39.1991 H   0  0  0  0  0  0
   17.2824  -16.0800  -41.5743 H   0  0  0  0  0  0
   18.4873  -11.2797  -41.0293 H   0  0  0  0  0  0
   18.4330  -14.8810  -43.4083 H   0  0  0  0  0  0
   19.4056  -12.8851  -44.0918 H   0  0  0  0  0  0
   14.3052  -16.0139  -40.5265 H   0  0  0  0  0  0
   12.6669  -14.0626  -41.9924 H   0  0  0  0  0  0
   12.0717  -16.0663  -43.3526 H   0  0  0  0  0  0
   13.0006  -17.0766  -42.2811 H   0  0  0  0  0  0
   15.0940  -15.8493  -42.9087 H   0  0  0  0  0  0
   14.1640  -14.7309  -43.8741 H   0  0  0  0  0  0
   10.4429  -13.9427  -41.9627 H   0  0  0  0  0  0
    8.9781  -15.3081  -39.8179 H   0  0  0  0  0  0
    8.0766  -13.2156  -41.8448 H   0  0  0  0  0  0
    8.6333  -12.9392  -40.2276 H   0  0  0  0  0  0
    6.7100  -14.4719  -39.4210 H   0  0  0  0  0  0
    5.1012  -12.2653  -39.9377 H   0  0  0  0  0  0
    6.2546  -12.4243  -38.6339 H   0  0  0  0  0  0
    6.7080  -11.6044  -40.1218 H   0  0  0  0  0  0
    5.5055  -15.4657  -41.0805 H   0  0  0  0  0  0
    4.6678  -13.9383  -41.2280 H   0  0  0  0  0  0
    5.9918  -14.3019  -42.3050 H   0  0  0  0  0  0
    8.9063  -17.4706  -40.3563 H   0  0  0  0  0  0
    7.8588  -18.2348  -43.0577 H   0  0  0  0  0  0
    9.4107  -19.8734  -41.0166 H   0  0  0  0  0  0
   10.6901  -18.1044  -42.4167 H   0  0  0  0  0  0
   10.3221  -19.0652  -43.8094 H   0  0  0  0  0  0
    9.4207  -21.6961  -42.7265 H   0  0  0  0  0  0
    7.7770  -21.3258  -42.2877 H   0  0  0  0  0  0
    8.4300  -20.7140  -43.7940 H   0  0  0  0  0  0
   12.4335  -19.8906  -43.2131 H   0  0  0  0  0  0
   12.1735  -19.6045  -41.4954 H   0  0  0  0  0  0
   11.4792  -21.0207  -42.2678 H   0  0  0  0  0  0
    5.8279  -18.8750  -43.1154 H   0  0  0  0  0  0
    4.4582  -19.8096  -40.6378 H   0  0  0  0  0  0
    3.4830  -18.2090  -43.0331 H   0  0  0  0  0  0
    3.5839  -17.6555  -41.3898 H   0  0  0  0  0  0
    2.3041  -19.7266  -39.7596 H   0  0  0  0  0  0
    1.2204  -18.2324  -43.6658 H   0  0  0  0  0  0
   -0.0031  -20.4834  -39.4306 H   0  0  0  0  0  0
   -1.1001  -18.9440  -43.2657 H   0  0  0  0  0  0
   -1.7067  -20.0863  -41.1701 H   0  0  0  0  0  0
    3.7950  -21.8364  -40.6221 H   0  0  0  0  0  0
    3.3095  -23.3007  -43.1791 H   0  0  0  0  0  0
    4.2916  -24.3615  -40.5017 H   0  0  0  0  0  0
    5.2225  -24.2128  -41.9692 H   0  0  0  0  0  0
    3.6122  -25.7838  -43.1268 H   0  0  0  0  0  0
    2.7592  -25.9991  -41.6212 H   0  0  0  0  0  0
    4.7694  -26.9419  -40.5566 H   0  0  0  0  0  0
    5.6893  -26.7058  -42.0288 H   0  0  0  0  0  0
    4.1102  -28.2678  -43.2425 H   0  0  0  0  0  0
    3.2110  -28.5027  -41.7538 H   0  0  0  0  0  0
    5.1872  -29.4193  -40.7693 H   0  0  0  0  0  0
    4.7634  -30.2486  -42.1299 H   0  0  0  0  0  0
    6.0321  -29.1960  -42.1682 H   0  0  0  0  0  0
   -0.9436  -23.2160  -41.3458 H   0  0  0  0  0  0
   -2.3410  -23.5203  -43.2572 H   0  0  0  0  0  0
   -1.2751  -24.7276  -43.9607 H   0  0  0  0  0  0
   -0.8546  -21.7407  -43.8737 H   0  0  0  0  0  0
   -0.7233  -22.7949  -45.2825 H   0  0  0  0  0  0
    1.3344  -23.7738  -44.4181 H   0  0  0  0  0  0
    1.4959  -22.0698  -43.9514 H   0  0  0  0  0  0
   -1.4855  -24.7485  -39.8633 H   0  0  0  0  0  0
   -0.0649  -27.2473  -39.7012 H   0  0  0  0  0  0
   -1.1359  -27.5070  -37.5258 H   0  0  0  0  0  0
   -2.2892  -26.2416  -37.8704 H   0  0  0  0  0  0
  1  2  2  0  0  0
  1  3  1  0  0  0
  1  4  1  0  0  0
  3126  1  0  0  0
  3128  1  0  0  0
  3129  1  0  0  0
  4  5  1  0  0  0
  4130  1  0  0  0
  5  6  1  0  0  0
  5  8  1  0  0  0
  5131  1  0  0  0
  6  7  2  0  0  0
  6 16  1  0  0  0
  8  9  1  0  0  0
  8132  1  0  0  0
  8133  1  0  0  0
  9 10  2  0  0  0
  9 11  1  0  0  0
 10 12  1  0  0  0
 10134  1  0  0  0
 11 13  2  0  0  0
 11135  1  0  0  0
 12 14  2  0  0  0
 12136  1  0  0  0
 13 14  1  0  0  0
 13137  1  0  0  0
 14 15  1  0  0  0
 15138  1  0  0  0
 16 17  1  0  0  0
 16139  1  0  0  0
 17 18  1  0  0  0
 17 20  1  0  0  0
 17140  1  0  0  0
 18 19  2  0  0  0
 18 24  1  0  0  0
 20 21  1  0  0  0
 20141  1  0  0  0
 20142  1  0  0  0
 21 22  1  0  0  0
 21 23  1  0  0  0
 21143  1  0  0  0
 22144  1  0  0  0
 22145  1  0  0  0
 22146  1  0  0  0
 23147  1  0  0  0
 23148  1  0  0  0
 23149  1  0  0  0
 24 25  1  0  0  0
 24150  1  0  0  0
 25 26  1  0  0  0
 25 28  1  0  0  0
 25151  1  0  0  0
 26 27  2  0  0  0
 26 38  1  0  0  0
 28 29  1  0  0  0
 28152  1  0  0  0
 28153  1  0  0  0
 29 30  2  0  0  0
 29 31  1  0  0  0
 30 32  1  0  0  0
 30154  1  0  0  0
 31 33  2  0  0  0
 31 34  1  0  0  0
 32 33  1  0  0  0
 32155  1  0  0  0
 33 35  1  0  0  0
 34 36  2  0  0  0
 34156  1  0  0  0
 35 37  2  0  0  0
 35157  1  0  0  0
 36 37  1  0  0  0
 36158  1  0  0  0
 37159  1  0  0  0
 38 39  1  0  0  0
 38160  1  0  0  0
 39 40  1  0  0  0
 39 42  1  0  0  0
 39161  1  0  0  0
 40 41  2  0  0  0
 40 45  1  0  0  0
 42 43  1  0  0  0
 42 44  1  0  0  0
 42162  1  0  0  0
 43163  1  0  0  0
 44164  1  0  0  0
 44165  1  0  0  0
 44166  1  0  0  0
 45 46  1  0  0  0
 45167  1  0  0  0
 46 47  1  0  0  0
 46 49  1  0  0  0
 46168  1  0  0  0
 47 48  2  0  0  0
 47 57  1  0  0  0
 49 50  1  0  0  0
 49169  1  0  0  0
 49170  1  0  0  0
 50 51  2  0  0  0
 50 52  1  0  0  0
 51 53  1  0  0  0
 51171  1  0  0  0
 52 54  2  0  0  0
 52172  1  0  0  0
 53 55  2  0  0  0
 53173  1  0  0  0
 54 55  1  0  0  0
 54174  1  0  0  0
 55 56  1  0  0  0
 56175  1  0  0  0
 57 58  1  0  0  0
 57176  1  0  0  0
 58 59  1  0  0  0
 58 61  1  0  0  0
 58177  1  0  0  0
 59 60  2  0  0  0
 59 69  1  0  0  0
 61 62  1  0  0  0
 61178  1  0  0  0
 61179  1  0  0  0
 62 63  2  0  0  0
 62 64  1  0  0  0
 63 65  1  0  0  0
 63180  1  0  0  0
 64 66  2  0  0  0
 64181  1  0  0  0
 65 67  2  0  0  0
 65182  1  0  0  0
 66 67  1  0  0  0
 66183  1  0  0  0
 67 68  1  0  0  0
 68184  1  0  0  0
 69 70  1  0  0  0
 69185  1  0  0  0
 70 71  1  0  0  0
 70 73  1  0  0  0
 70186  1  0  0  0
 71 72  2  0  0  0
 71 78  1  0  0  0
 73 74  1  0  0  0
 73187  1  0  0  0
 73188  1  0  0  0
 74 75  1  0  0  0
 74189  1  0  0  0
 74190  1  0  0  0
 75 76  2  0  0  0
 75 77  1  0  0  0
 78 79  1  0  0  0
 78191  1  0  0  0
 79 80  1  0  0  0
 79 82  1  0  0  0
 79192  1  0  0  0
 80 81  2  0  0  0
 80 86  1  0  0  0
 82 83  1  0  0  0
 82193  1  0  0  0
 82194  1  0  0  0
 83 84  1  0  0  0
 83 85  1  0  0  0
 83195  1  0  0  0
 84196  1  0  0  0
 84197  1  0  0  0
 84198  1  0  0  0
 85199  1  0  0  0
 85200  1  0  0  0
 85201  1  0  0  0
 86 87  1  0  0  0
 86202  1  0  0  0
 87 88  1  0  0  0
 87 90  1  0  0  0
 87203  1  0  0  0
 88 89  2  0  0  0
 88 94  1  0  0  0
 90 91  1  0  0  0
 90 92  1  0  0  0
 90204  1  0  0  0
 91 93  1  0  0  0
 91205  1  0  0  0
 91206  1  0  0  0
 92207  1  0  0  0
 92208  1  0  0  0
 92209  1  0  0  0
 93210  1  0  0  0
 93211  1  0  0  0
 93212  1  0  0  0
 94 95  1  0  0  0
 94213  1  0  0  0
 95 96  1  0  0  0
 95 98  1  0  0  0
 95214  1  0  0  0
 96 97  2  0  0  0
 96105  1  0  0  0
 98 99  1  0  0  0
 98215  1  0  0  0
 98216  1  0  0  0
 99100  2  0  0  0
 99101  1  0  0  0
100102  1  0  0  0
100217  1  0  0  0
101103  2  0  0  0
101218  1  0  0  0
102104  2  0  0  0
102219  1  0  0  0
103104  1  0  0  0
103220  1  0  0  0
104221  1  0  0  0
105106  1  0  0  0
105222  1  0  0  0
106107  1  0  0  0
106109  1  0  0  0
106223  1  0  0  0
107108  2  0  0  0
107114  1  0  0  0
109110  1  0  0  0
109224  1  0  0  0
109225  1  0  0  0
110111  1  0  0  0
110226  1  0  0  0
110227  1  0  0  0
111112  1  0  0  0
111228  1  0  0  0
111229  1  0  0  0
112113  1  0  0  0
112230  1  0  0  0
112231  1  0  0  0
113232  1  0  0  0
113233  1  0  0  0
113234  1  0  0  0
114115  1  0  0  0
114120  1  0  0  0
115116  1  0  0  0
115118  1  0  0  0
115235  1  0  0  0
116117  2  0  0  0
116121  1  0  0  0
118119  1  0  0  0
118236  1  0  0  0
118237  1  0  0  0
119120  1  0  0  0
119238  1  0  0  0
119239  1  0  0  0
120240  1  0  0  0
120241  1  0  0  0
121122  1  0  0  0
121242  1  0  0  0
122123  1  0  0  0
122125  1  0  0  0
122243  1  0  0  0
123124  2  0  0  0
123127  1  0  0  0
125126  1  0  0  0
125244  1  0  0  0
125245  1  0  0  0
M  CHG  3  77  -1 113   1 127  -1
M  END
> <i_m_stars>
0

> <s_m_entry_id>
3

> <s_m_entry_name>
Structure3

> <s_pdb_PDB_TITLE>
CRYSTAL STRUCTURE OF CHORISMATE MUTASE FROM MYCOBACTERIUM TUBERCULOSIS IN COMPLEX WITH THE CYCLIC PEPTIDE INHIBITOR L2.1 (TRICLINIC FORM)

> <s_pdb_PDB_ID>
9BT3

> <r_pdb_PDB_CRYST1_a>
58.94

> <r_pdb_PDB_CRYST1_b>
73.401

> <r_pdb_PDB_CRYST1_c>
117.862

> <r_pdb_PDB_CRYST1_alpha>
74.75

> <r_pdb_PDB_CRYST1_beta>
82.21

> <r_pdb_PDB_CRYST1_gamma>
77.39

> <s_pdb_PDB_CRYST1_Space_Group>
P 1

> <i_pdb_PDB_CRYST1_z>
8

> <s_pdb_PDB_CLASSIFICATION>
ISOMERASE

> <s_pdb_PDB_DEPOSITION_DATE>
14-MAY-24

> <s_pdb_PDB_format_version>
3.30

> <r_pdb_PDB_R>
0.229

> <r_pdb_PDB_Rfree>
0.275

> <r_pdb_PDB_RESOLUTION>
2.5

> <s_pdb_PDB_EXPDTA>
X-RAY DIFFRACTION

> <r_pdb_PDB_EXPDTA_TEMPERATURE>
100

> <r_pdb_PDB_EXPDTA_PH>
6.5

> <s_pdb_PDB_REMARK_350_Biomolecule_1_Transform_1_Chains>
A, a

> <s_pdb_PDB_REMARK_350_Biomolecule_1_Transform_1_Matrix_1>
1.000000 0.000000 0.000000   0.000000;0.000000 1.000000 0.000000   0.000000;0.000000 0.000000 1.000000   0.000000

> <s_pdb_PDB_REMARK_350_Biomolecule_2_Transform_1_Chains>
B, b

> <s_pdb_PDB_REMARK_350_Biomolecule_2_Transform_1_Matrix_1>
1.000000 0.000000 0.000000   0.000000;0.000000 1.000000 0.000000   0.000000;0.000000 0.000000 1.000000   0.000000

> <s_pdb_PDB_REMARK_350_Biomolecule_3_Transform_1_Chains>
C, c

> <s_pdb_PDB_REMARK_350_Biomolecule_3_Transform_1_Matrix_1>
1.000000 0.000000 0.000000   0.000000;0.000000 1.000000 0.000000   0.000000;0.000000 0.000000 1.000000   0.000000

> <s_pdb_PDB_REMARK_350_Biomolecule_4_Transform_1_Chains>
D, d

> <s_pdb_PDB_REMARK_350_Biomolecule_4_Transform_1_Matrix_1>
1.000000 0.000000 0.000000   0.000000;0.000000 1.000000 0.000000   0.000000;0.000000 0.000000 1.000000   0.000000

> <s_pdb_PDB_REMARK_350_Biomolecule_5_Transform_1_Chains>
E, e

> <s_pdb_PDB_REMARK_350_Biomolecule_5_Transform_1_Matrix_1>
1.000000 0.000000 0.000000   0.000000;0.000000 1.000000 0.000000   0.000000;0.000000 0.000000 1.000000   0.000000

> <s_pdb_PDB_REMARK_350_Biomolecule_6_Transform_1_Chains>
F, f

> <s_pdb_PDB_REMARK_350_Biomolecule_6_Transform_1_Matrix_1>
1.000000 0.000000 0.000000   0.000000;0.000000 1.000000 0.000000   0.000000;0.000000 0.000000 1.000000   0.000000

> <s_pdb_PDB_REMARK_350_Biomolecule_7_Transform_1_Chains>
G, g

> <s_pdb_PDB_REMARK_350_Biomolecule_7_Transform_1_Matrix_1>
1.000000 0.000000 0.000000   0.000000;0.000000 1.000000 0.000000   0.000000;0.000000 0.000000 1.000000   0.000000

> <s_pdb_PDB_REMARK_350_Biomolecule_8_Transform_1_Chains>
H, h

> <s_pdb_PDB_REMARK_350_Biomolecule_8_Transform_1_Matrix_1>
1.000000 0.000000 0.000000   0.000000;0.000000 1.000000 0.000000   0.000000;0.000000 0.000000 1.000000   0.000000

> <s_m_Source_Path>
C:\Users\59103\Documents\Schrodinger\proteinprep_4

> <s_m_Source_File>
proteinprep_4-out.maegz

> <i_m_Source_File_Index>
1

> <b_ppw_prepared>
1

> <s_ppw_prepared_with_version>
2023-1

> <b_ppw_created_disulfur>
1

> <r_ppw_preprocess_pH>
7.4

> <r_i_Potential_Energy-S-OPLS>
-734.195765308533

> <r_i_RMS_Derivative-S-OPLS>
0.0852049966233634

> <r_i_Max_Derivative-S-OPLS>
0.838555506119406

> <r_i_Stretch_Energy-S-OPLS>
84.3013908551045

> <r_i_Bend_Energy-S-OPLS>
377.456101302882

> <r_i_LJ-14_Energy-S-OPLS>
826.23538066334

> <r_i_El-14_Energy-S-OPLS>
202.721137687308

> <r_i_Van_der_Waals_Energy-S-OPLS>
-1641.24328733908

> <r_i_Electrostatic_Energy-S-OPLS>
-861.258675935252

> <r_i_Dihedral_Energy-S-OPLS>
258.364718942387

> <r_i_target_temperature>
298

> <s_m_job_name>
proteinprep_4

> <s_m_subgroup_title>
proteinprep_4-out

> <s_m_subgroupid>
proteinprep_4-out

> <b_m_subgroup_collapsed>
0

$$$$
